21
Randomly sampled initial velocities; COM removed; AMBER units
   C       0.2102530054      -0.2326488449      -0.1917866502
   N      -0.4896263813       0.1441480961       0.0860383455
   C       0.0056832059       0.3598758122      -0.0237957605
   N       0.2249036202       0.3112507328       0.2449510029
   C       0.0928196581      -0.2285914910       0.2258198568
   C       0.6387822464      -0.2765146542      -0.2538176912
   C      -0.7320274911       0.0141282270       0.2422060518
   C       0.1099025888       0.3931179469      -0.2291015379
   C      -0.4620467595      -0.0107332087       0.1063877937
   C       0.6069864147       0.4687738114       0.1756207471
   C      -0.4481292917      -0.3967536183      -0.1992231750
   B      -0.2243935735      -0.6809849306      -0.1737629401
   F      -0.1026771439      -0.0534435343      -0.3084939122
   F      -0.0325702493      -0.1135609480       0.4030558248
   H       0.8832929009       0.1721535506       0.1094994545
   H       1.6028436929       1.9178282927      -0.6719514566
   H      -1.2142827232       0.8077858801       0.2963238661
   H       2.1103624558      -0.7820690167      -0.7664744274
   H       1.2777428770       1.7888814789      -1.1781442528
   H       3.2534901943      -1.5055221739      -1.4730502728
   H       0.5008596866       0.7812144741       0.9590185365
